LAMMPS (23 Jun 2022 - Update 1)
####################################################
# EXAMPLE for using the OCTP plugin
# Transport properties of an equimolar mixture of
# water-methanol at 298 K and 1 atm.
#################### SETTING UP ####################
units real
dimension 3
newton on
boundary p p p
atom_style full

#################### VARIABLES ####################
variable Temp equal 298       # Temperature in K
variable Pres equal 1.0       # Pressure in atm.

variable MolMass equal 25.028 # Average molar mass (kg/kmol)
variable MolAtom equal 3      # Number of atoms in a molecule

variable RandomSeed equal 123 # The random seed for velocity
variable tstep equal 1.0      # 1fs
variable Ninptpre equal 10000 # Pre-initialize the NPT ensemble (very small timesteps)
variable Ninpt equal 50000    # Initialize the NPT ensemble
variable Npnpt equal 100000   # Production in the NPT ensemble (volume)
variable Ninvtpre equal 10000 # Pre-initialize the NVT ensemble (very small timesteps)
variable Ninvt equal 50000    # Initialize the NVT ensemble
variable Npnvt equal 100000   # Production in the NVT ensemble (energy)
variable Nrun equal 1000000   # production in the NVE ensemble
variable Nf equal 10000       # Nfreq (fix ave/time and thermo)
variable Ne equal  10         # Nevery (fix ave/time)
variable Nr equal 10000/10
variable NBR equal 100000/5
variable Nd equal 100000/10

variable nb equal 10          # Number of blocks (fix ordern)
variable nbe equal 20         # Number of block elements (fix ordern)
variable Nvisc equal 5        # Nevery for viscosity (fix ordern: sample data at (Nvisc*2))
variable Ncond equal 5        # Nevery for Tconductivity (fix ordern: sample data at (Ncond*2))
variable Ndiff equal 1000     # Nevery for diffusivity (fix ordern: sample data at (Ndiff))
variable Nwrit equal 100000   # Nwrite for transport properties (fix ordern: write every (Nwrit))

variable Nrdfe equal 100      # Nevery for RDF (fix ave/time)
variable Nrdfw equal 1000     # Nwrite for RDF (compute rdf/ext: write every (Nrdfw*Nrdfe))
variable binnum equal 2000    # Number of bins for RDF

#################### ATOM DEFINITION and FORCEFIELD ####################
read_data ./data.system                     # read the positions
Reading data file ...
  orthogonal box = (-1.499499 -1.494 -1.498) to (31.500501 31.506 31.502)
  reading atoms ...
  1500 atoms
  scanning bonds ...
  scanning angles ...
  reading bonds ...
  1000 bonds
  reading angles ...
  500 angles
Finding 1-2 1-3 1-4 neighbors ...
     2 = max # of 1-2 neighbors
     1 = max # of 1-3 neighbors
     1 = max # of 1-4 neighbors
     2 = max # of special neighbors
include forcefield.data                     # read the force field
#################### FORCE FIELDS ####################
pair_style lj/cut/coul/long 10.0
pair_modify mix arithmetic tail yes # ATC + Lorentz-Berthelot
kspace_style pppm 1e-6
bond_style harmonic
angle_style harmonic
dihedral_style none
improper_style none
#special_bonds lj 0.0 0.0 0.0 coul 0.0 0.0 0.0 dihedral no

# Pair Coeffs
#
# 1  C3
# 2  H
# 3  Hw
# 4  O
# 5  Ow
pair_coeff 1 1 0.19475 3.75
pair_coeff 2 2 0.0 0.0
pair_coeff 3 3 0.0 0.0
pair_coeff 4 4 0.18481 3.02
pair_coeff 5 5 0.15535 3.166

# Bond Coeffs
#
# 1  C3-O
# 2  H-O
# 3  Hw-Ow
bond_coeff 1 1000.0 1.430 	#shake
bond_coeff 2 1000.0 0.945	#shake
bond_coeff 3 1000.0 1.000	#shake

# Angle Coeffs
#
# 1  C3-O-H
# 2  Hw-Ow-Hw
angle_coeff 1 55.0  108.5
angle_coeff 2 100.0 109.47	#shake

# Charges of the atoms
#
# 1  C3
# 2  H
# 3  Hw
# 4  O
# 5  Ow
set type 1 charge +0.265	# TraPPE
Setting atom values ...
  250 settings made for charge
set type 2 charge +0.435	# TraPPE
Setting atom values ...
  250 settings made for charge
set type 3 charge +0.4238	# SPC/E
Setting atom values ...
  500 settings made for charge
set type 4 charge -0.700	# TraPPE
Setting atom values ...
  250 settings made for charge
set type 5 charge -0.8476	# SPC/E
Setting atom values ...
  250 settings made for charge

#################### INITIALIZATION ####################
# groups for the central atoms of water (O) and methanol (O)
group wat type 5      # The Oxygen of WATER molecules
250 atoms in group wat
group met type 4      # The Oxygen of METHANOL molecules
250 atoms in group met

# neigbor lists
neighbor 2.0 bin
neigh_modify every 1 delay 0 check yes

# velocity-Verlet integrator
run_style verlet

# minimizing the system using the conjugate gradient method
min_style cg
min_modify dmax 0.05
minimize 1.0e-6 1.0e-6 1000 10000
PPPM initialization ...
  G vector (1/distance) = 0.32821011
  grid = 40 40 40
  stencil order = 5
  estimated absolute RMS force accuracy = 0.00038414621
  estimated relative force accuracy = 1.1568449e-06
  3d grid and FFT values/proc = 6069 1400
Generated 10 of 10 mixed pair_coeff terms from arithmetic mixing rule
  update every 1 steps, delay 0 steps, check yes
Step          Temp          E_pair         E_mol          TotEng         Press
0   0             -648.95582      0.18870006    -648.76712     -109.95363
Loop time of 1.6909 on 48 procs for 1000 steps with 1500 atoms

Minimization stats:
  Stopping criterion = max iterations
  Energy initial, next-to-last, final =
  Force two-norm initial, final = 227.07219 22.133391
  Force max component initial, final = 23.089719 3.8088027
  Final line search alpha, max atom move = 0.0016444791 0.0062634962
  Iterations, force evaluations = 1000 1819

reset_timestep 0

# initializing velocities
velocity all create 298 123

# rate of writing thermal properties to the log file
thermo 10000

#################### 1) Initialize the NPT ensemble ####################
# applying the shake algorithm for rigid molecules and the NPT solver
fix constrain all shake 1.0e-6 1000 0 b 1 2 3 a 2
       0 = # of size 2 clusters
     250 = # of size 3 clusters
       0 = # of size 4 clusters
     250 = # of frozen angles
  find clusters CPU = 0.001 seconds
fix integrate all npt temp 298 298 10.0 iso 1 1 100.0

# Initializing the whole system with very small timesteps in the NPT ensemble
timestep 0.001
run 10000
PPPM initialization ...
  G vector (1/distance) = 0.32821011
  grid = 40 40 40
  stencil order = 5
  estimated absolute RMS force accuracy = 0.00038414621
  estimated relative force accuracy = 1.1568449e-06
  3d grid and FFT values/proc = 6069 1400
Generated 10 of 10 mixed pair_coeff terms from arithmetic mixing rule
Step          Temp          E_pair         E_mol          TotEng         Press          Volume
0   412.72128     -5671.3771      12.828265     -4327.015       3077589.4      35937
Loop time of 12.2754 on 48 procs for 10000 steps with 1500 atoms

timestep 0.01
run 10000
PPPM initialization ...
  G vector (1/distance) = 0.32822663
  grid = 40 40 40
  stencil order = 5
  estimated absolute RMS force accuracy = 0.00038385816
  estimated relative force accuracy = 1.1559774e-06
  3d grid and FFT values/proc = 6069 1400
Generated 10 of 10 mixed pair_coeff terms from arithmetic mixing rule
Step          Temp          E_pair         E_mol          TotEng         Press          Volume
10000   222.07205     -5104.5838      27.940076     -4360.1881     -25304.68       35907.931
Loop time of 12.2975 on 48 procs for 10000 steps with 1500 atoms

timestep 0.1
run 10000
PPPM initialization ...
  G vector (1/distance) = 0.32878204
  grid = 40 40 40
  stencil order = 5
  estimated absolute RMS force accuracy = 0.00037426719
  estimated relative force accuracy = 1.1270945e-06
  3d grid and FFT values/proc = 6069 1400
Generated 10 of 10 mixed pair_coeff terms from arithmetic mixing rule
Step          Temp          E_pair         E_mol          TotEng         Press          Volume
20000   292.35925     -4559.2915      62.081963     -3553.9913     -19859.025      34936.834
Loop time of 12.4772 on 48 procs for 10000 steps with 1500 atoms

timestep 0.2
run 10000
PPPM initialization ...
  G vector (1/distance) = 0.33560625
  grid = 40 40 40
  stencil order = 5
  estimated absolute RMS force accuracy = 0.00027878613
  estimated relative force accuracy = 8.3955615e-07
  3d grid and FFT values/proc = 6069 1400
Generated 10 of 10 mixed pair_coeff terms from arithmetic mixing rule
Step          Temp          E_pair         E_mol          TotEng         Press          Volume
30000   314.15963     -4851.8142      62.477397     -3775.7855      8033.062       25976.498
Loop time of 13.2518 on 48 procs for 10000 steps with 1500 atoms

timestep 0.5
run 10000
PPPM initialization ...
  G vector (1/distance) = 0.3367536
  grid = 40 40 40
  stencil order = 5
  estimated absolute RMS force accuracy = 0.00026487741
  estimated relative force accuracy = 7.9767044e-07
  3d grid and FFT values/proc = 6069 1400
Generated 10 of 10 mixed pair_coeff terms from arithmetic mixing rule
Step          Temp          E_pair         E_mol          TotEng         Press          Volume
40000   296.30594     -4928.2703      51.898501     -3920.4207     -6876.8594      24628.576
Loop time of 12.858 on 48 procs for 10000 steps with 1500 atoms

reset_timestep 0

# continuing the initialization with the final value of timestep
unfix integrate
fix integrate all npt temp 298 298 100.0 iso 1 1 1000.0

timestep 1
run 50000
PPPM initialization ...
  G vector (1/distance) = 0.33039355
  grid = 36 36 36
  stencil order = 5
  estimated absolute RMS force accuracy = 0.00041010314
  estimated relative force accuracy = 1.2350134e-06
  3d grid and FFT values/proc = 4864 1080
Generated 10 of 10 mixed pair_coeff terms from arithmetic mixing rule
Step          Temp          E_pair         E_mol          TotEng         Press          Volume
0   298.0449      -5050.7158      84.818644     -4004.3357     -3261.4853      23899.793
Loop time of 57.3033 on 48 procs for 50000 steps with 1500 atoms

reset_timestep 0

#################### 2) Obtaining average volume in NPT ######################
# Getting the average volume of the system
variable Volume equal vol
fix VoluAve all ave/time 1 100000 100000 v_Volume file volume.dat

# Getting the average density of the system (block averaging)
variable nAvog equal 6.0221415e26              # Avogadro's number
variable A3_in_m3 equal 1e-30                  # Angstrom^3 in m^3
variable nMolecule equal atoms/3
variable mMolecule equal (25.028/6.0221415e+26)
variable Dens equal v_nMolecule*4.15599666663429e-26/(vol*1e-30)
fix DensAve all ave/time 1 20000 20000 v_Dens file density.dat

run 100000
PPPM initialization ...
  G vector (1/distance) = 0.33083894
  grid = 36 36 36
  stencil order = 5
  estimated absolute RMS force accuracy = 0.00040194756
  estimated relative force accuracy = 1.2104531e-06
  3d grid and FFT values/proc = 4864 1080
Generated 10 of 10 mixed pair_coeff terms from arithmetic mixing rule
Step          Temp          E_pair         E_mol          TotEng         Press          Volume
0   310.62028     -5076.8795      76.735496     -3998.0116      1024.1826      23394.176
Averages over the last 6 of 11 rows, steps 50000 to 100000:
Temp E_pair E_mol TotEng Press Volume
297.213 -5062.46 84.6507 -4018.93 -220.654 23920.7
Loop time of 117.792 on 48 procs for 100000 steps with 1500 atoms

reset_timestep 0
ERROR: Cannot reset timestep with time-dependent fix ave/time defined (../update.cpp:507)
Last command: reset_timestep 0
